Version 4
SHEET 1 880 680
WIRE -496 -48 -496 -64
WIRE -816 -16 -816 -48
WIRE 96 32 96 0
WIRE -1232 48 -1232 16
WIRE -1008 48 -1008 16
WIRE -496 48 -496 32
WIRE -400 48 -496 48
WIRE -192 48 -400 48
WIRE 64 48 -192 48
WIRE 64 80 0 80
WIRE -816 96 -816 64
WIRE -768 96 -816 96
WIRE -496 96 -496 48
WIRE -400 96 -400 48
WIRE -192 96 -192 48
WIRE -816 112 -816 96
WIRE 336 128 240 128
WIRE -1232 160 -1232 128
WIRE -1008 160 -1008 128
WIRE 0 176 0 160
WIRE 64 176 0 176
WIRE 336 176 336 128
WIRE -496 208 -496 160
WIRE -400 208 -400 160
WIRE -400 208 -496 208
WIRE -192 208 -192 160
WIRE -192 208 -400 208
WIRE 0 208 -192 208
WIRE 64 208 0 208
WIRE -816 224 -816 192
WIRE 0 224 0 208
WIRE 96 272 96 224
WIRE 336 272 336 256
FLAG -1008 160 0
FLAG -1008 16 3V3
FLAG 96 0 3V3
FLAG 96 272 0
FLAG -1232 160 0
FLAG -1232 16 V_therm
FLAG -496 -64 V_therm
FLAG 0 224 0
FLAG -816 224 0
FLAG -816 -48 3V3
FLAG -768 96 V_ref
FLAG 176 192 V_ref
FLAG 336 272 0
SYMBOL Opamps\\AD8227 96 128 R0
SYMATTR InstName U1
SYMBOL voltage -1008 32 R0
WINDOW 123 0 0 Left 0
WINDOW 39 0 0 Left 0
SYMATTR InstName V1
SYMATTR Value 3.3
SYMBOL voltage -1232 32 R0
WINDOW 123 0 0 Left 0
WINDOW 39 0 0 Left 0
SYMATTR InstName V2
SYMATTR Value -10m
SYMBOL res -16 64 R0
SYMATTR InstName R1
SYMATTR Value 845
SYMBOL res -832 96 R0
SYMATTR InstName R2
SYMATTR Value 1k
SYMBOL res -832 -32 R0
SYMATTR InstName R3
SYMATTR Value 1k
SYMBOL res 320 160 R0
SYMATTR InstName R4
SYMATTR Value 1k
SYMBOL schottky -512 96 R0
SYMATTR InstName D1
SYMATTR Value PMEG2005AEA
SYMATTR Description Diode
SYMATTR Type diode
SYMBOL cap -208 96 R0
SYMATTR InstName C1
SYMATTR Value 10n
SYMBOL res -480 48 R180
WINDOW 0 36 76 Left 2
WINDOW 3 36 40 Left 2
SYMATTR InstName R5
SYMATTR Value 100
SYMBOL schottky -384 160 R180
WINDOW 0 24 64 Left 2
WINDOW 3 24 0 Left 2
SYMATTR InstName D2
SYMATTR Value PMEG2005AEA
SYMATTR Description Diode
SYMATTR Type diode
TEXT -882 296 Left 2 !.tran 0 1 0
